
10
B 0.36548 0.664812 0.834228
B 0.272895 0.852445 0.939216
B 0.362998 0.272309 0.306695
B 0.505125 0.172774 0.852795
B 0.54524 0.171629 0.92466
B 0.720766 0.0462585 0.92911
B 0.995788 0.0687914 0.518378
B 0.085006 0.308484 0.802709
B 0.241667 0.64376 0.123254
B 0.706778 0.331878 0.719459

10
B 0.36548 0.664812 0.834228
B 0.272895 0.852445 0.939216
B 0.362998 0.272309 0.306695
B 0.505125 0.172774 0.852795
B 0.54524 0.171629 0.92466
B 0.720766 0.0462585 0.92911
B 0.995788 0.0687914 0.518378
B 0.085006 0.308484 0.802709
B 0.241667 0.64376 0.123254
B 0.706778 0.331878 0.719459

10
B 0.423215 0.722547 0.891963
B 0.33063 0.91018 0.996951
B 0.420733 0.330044 0.36443
B 0.56286 0.23051 0.91053
B 0.604615 0.231005 0.978965
B 0.778501 0.103994 0.986845
B 0.0535226 0.126526 0.576113
B 0.14552 0.368998 0.854439
B 0.307726 0.709819 0.158925
B 0.772837 0.397936 0.755131

10
B 0.42564 0.822319 0.898257
B 0.336064 0.00968027 0.00532711
B nan nan nan
B nan nan nan
B nan nan nan
B nan nan nan
B 0.0970722 0.174928 0.652012
B 0.189267 0.417602 0.930096
B 0.351938 0.758907 0.233997
B 0.830756 0.455856 0.812495

10
B 0.482748 0.881219 0.955436
B 0.393198 0.0685454 0.0625158
B nan nan nan
B nan nan nan
B nan nan nan
B nan nan nan
B 0.15458 0.232525 0.710112
B 0.246777 0.475201 0.98819
B 0.409454 0.816513 0.292078
B 0.89542 0.527616 0.838362

10
B 0.551737 0.950257 0.977213
B 0.400133 0.166155 0.0831121
B nan nan nan
B nan nan nan
B nan nan nan
B nan nan nan
B 0.212311 0.290257 0.767853
B 0.293469 0.511149 0.0689838
B 0.439773 0.89587 0.344833
B 0.940385 0.591341 0.90095

10
B 0.609758 0.00827944 0.0343702
B 0.456895 0.225235 0.140449
B nan nan nan
B nan nan nan
B nan nan nan
B nan nan nan
B 0.221983 0.385614 0.796376
B 0.301109 0.605707 0.100613
B 0.443658 0.993525 0.366012
B 0.983221 0.640038 0.977067

10
B 0.653328 0.0567015 0.110245
B 0.500394 0.273712 0.21633
B nan nan nan
B nan nan nan
B nan nan nan
B nan nan nan
B 0.223192 0.408773 0.89365
B 0.342285 0.656611 0.176199
B 0.483147 0.0496463 0.438751
B 0.0411142 0.70493 0.0264364

10
B 0.710836 0.114298 0.168344
B 0.54066 0.314209 0.298419
B nan nan nan
B nan nan nan
B nan nan nan
B nan nan nan
B 0.251967 0.487623 0.948008
B 0.376727 0.722736 0.242842
B 0.541291 0.106895 0.496561
B 0.0988584 0.762802 0.0840248

10
B 0.748887 0.198577 0.206411
B 0.598008 0.371561 0.356917
B nan nan nan
B nan nan nan
B nan nan nan
B nan nan nan
B 0.255656 0.585239 0.969397
B 0.419001 0.771568 0.319186
B 0.584862 0.155271 0.572464
B 0.142409 0.811213 0.159918

10
B 0.752828 0.256225 0.288028
B 0.641531 0.419937 0.432848
B nan nan nan
B nan nan nan
B nan nan nan
B nan nan nan
B 0.296792 0.636531 0.0447428
B 0.476858 0.836476 0.368577
B 0.611474 0.239785 0.618823
B 0.169006 0.895739 0.206265

10
B 0.755163 0.34372 0.336393
B 0.668114 0.504451 0.479224
B nan nan nan
B nan nan nan
B nan nan nan
B nan nan nan
B 0.318526 0.65652 0.140284
B 0.549198 0.902256 0.38955
B 0.672504 0.316347 0.639161
B 0.189348 0.921262 0.300789

10
B 0.791557 0.382406 0.421121
B 0.725373 0.562771 0.536845
B nan nan nan
B nan nan nan
B nan nan nan
B nan nan nan
B 0.380496 0.718444 0.188505
B 0.598474 0.943454 0.466196
B 0.730391 0.374518 0.696302
B 0.246594 0.978603 0.359396

10
B 0.822476 0.458968 0.477532
B 0.763091 0.647348 0.574581
B nan nan nan
B nan nan nan
B nan nan nan
B nan nan nan
B 0.424352 0.767159 0.264026
B 0.641501 0.990892 0.542997
B 0.773953 0.422948 0.772177
B 0.312256 0.0226458 0.420623

10
B 0.864655 0.508473 0.553494
B 0.817503 0.711213 0.628993
B nan nan nan
B nan nan nan
B nan nan nan
B nan nan nan
B 0.499845 0.78035 0.328266
B 0.667864 0.0750985 0.590052
B 0.800554 0.50748 0.818509
B 0.352956 0.105731 0.458574

10
B 0.890319 0.593356 0.599714
B 0.849131 0.800651 0.660622
B nan nan nan
B nan nan nan
B nan nan nan
B nan nan nan
B 0.558027 0.837391 0.386242
B 0.725118 0.133412 0.647685
B 0.857813 0.565801 0.87613
B 0.410448 0.163999 0.516016

10
B 0.947565 0.651686 0.657337
B 0.878611 0.880902 0.712495
B nan nan nan
B nan nan nan
B nan nan nan
B nan nan nan
B 0.615513 0.895332 0.444019
B 0.782669 0.191498 0.705251
B 0.896313 0.64967 0.914647
B 0.418271 0.263385 0.523837

10
B 0.963659 0.749056 0.673467
B 0.939927 0.915559 0.783482
B nan nan nan
B nan nan nan
B nan nan nan
B nan nan nan
B 0.659049 0.943744 0.51992
B 0.794973 0.223159 0.799306
B 0.937526 0.740141 0.925446
B 0.459985 0.315094 0.598578

10
B 0.0056293 0.800409 0.748309
B 0.983655 0.962701 0.860069
B nan nan nan
B nan nan nan
B nan nan nan
B nan nan nan
B 0.699315 0.98424 0.60201
B 0.856435 0.228625 0.877999
B 0.995142 0.798661 0.982505
B 0.517457 0.372749 0.656654

10
B 0.0400487 0.884647 0.789773
B 0.029757 0.9982 0.941398
B nan nan nan
B nan nan nan
B nan nan nan
B nan nan nan
B 0.750369 0.0522685 0.654599
B 0.895775 0.311319 0.918174
B 0.00297046 0.898049 0.990308
B 0.533582 0.470104 0.672835

10
B 0.104239 0.921451 0.857042
B nan nan nan
B nan nan nan
B nan nan nan
B nan nan nan
B 0.793119 0.141834 0.666865
B 0.899845 0.368751 0.999936
B 0.0446851 0.949757 0.065048
B 0.575552 0.521456 0.747679
B 0.0924576 0.0122341 0.0180249
