
10
B 0.206746 0.748877 0.717111
B 0.382146 0.614311 0.092048
B 0.44136 0.836558 0.831942
B 0.216821 0.48056 0.738495
B 0.885347 0.98011 0.101929
B 0.990241 0.142243 0.980387
B 0.869512 0.551527 0.0399375
B 0.265567 0.536902 0.801756
B 0.358247 0.844002 0.519702
B 0.92262 0.922645 0.970351

10
B 0.206746 0.748877 0.717111
B 0.382146 0.614311 0.092048
B 0.44136 0.836558 0.831942
B 0.216821 0.48056 0.738495
B 0.885347 0.98011 0.101929
B 0.990241 0.142243 0.980387
B 0.869512 0.551527 0.0399375
B 0.265567 0.536902 0.801756
B 0.358247 0.844002 0.519702
B 0.92262 0.922645 0.970351

10
B 0.439881 0.672046 0.149783
B 0.499095 0.894293 0.889677
B 0.264481 0.806612 0.774846
B 0.943082 0.0378447 0.159664
B 0.0479755 0.199978 0.0381222
B 0.927247 0.609262 0.0976725
B 0.320586 0.594616 0.862106
B 0.27179 0.538274 0.798889
B 0.415982 0.901737 0.577437
B 0.980355 0.98038 0.0280856

10
B 0.497616 0.729781 0.207518
B 0.55683 0.952028 0.947412
B 0.322216 0.864347 0.832581
B 0.000816941 0.0955797 0.217399
B 0.105711 0.257713 0.0958572
B 0.984982 0.666997 0.155408
B 0.375594 0.652329 0.922465
B 0.325823 0.595962 0.860146
B 0.473717 0.959472 0.635172
B 0.0380896 0.0381148 0.0858206

10
B 0.614565 0.00976324 0.00514662
B 0.379951 0.922082 0.890316
B 0.058552 0.153315 0.275134
B 0.163446 0.315448 0.153592
B 0.0427173 0.724732 0.213143
B 0.430417 0.710039 0.982996
B 0.383492 0.653698 0.917947
B 0.531452 0.0172074 0.692907
B 0.0958247 0.0958498 0.143556
B 0.555351 0.787516 0.265253

10
B 0.6723 0.0674983 0.0628816
B 0.437686 0.979817 0.948051
B 0.116287 0.21105 0.332869
B 0.221181 0.373183 0.211327
B 0.100452 0.782467 0.270878
B 0.485954 0.767763 0.0428591
B 0.441226 0.711433 0.975683
B 0.589187 0.0749424 0.750642
B 0.15356 0.153585 0.201291
B 0.613086 0.845251 0.322988

10
B 0.730035 0.125233 0.120617
B 0.495421 0.0375521 0.00578642
B 0.174022 0.268785 0.390604
B 0.278916 0.430918 0.269062
B 0.158187 0.840202 0.328613
B 0.541531 0.825488 0.102685
B 0.495352 0.771051 0.0349791
B 0.646922 0.132677 0.808377
B 0.211295 0.21132 0.259026
B 0.670821 0.902986 0.380723

10
B 0.78777 0.182968 0.178352
B 0.553156 0.0952871 0.0635214
B 0.231757 0.32652 0.448339
B 0.336651 0.488653 0.326797
B 0.215922 0.897937 0.386348
B 0.597107 0.883213 0.16251
B 0.543955 0.833245 0.096377
B 0.704657 0.190412 0.866112
B 0.728556 0.960721 0.438458
B 0.26903 0.269055 0.316761

10
B 0.845505 0.240703 0.236087
B 0.610891 0.153022 0.121256
B 0.289492 0.384255 0.506074
B 0.394386 0.546388 0.384532
B 0.273657 0.955672 0.444083
B 0.653472 0.944584 0.217796
B 0.601529 0.891068 0.154185
B 0.762392 0.248147 0.923847
B 0.786291 0.0184559 0.496193
B 0.326765 0.32679 0.374496

10
B 0.90324 0.298438 0.293822
B 0.668626 0.210757 0.178991
B 0.347227 0.44199 0.563809
B 0.452121 0.604123 0.442267
B 0.331392 0.0134075 0.501818
B 0.711528 0.00507498 0.272297
B 0.659261 0.948804 0.211921
B 0.820127 0.305883 0.981582
B 0.844026 0.0761909 0.553928
B 0.3845 0.384525 0.432231

10
B 0.960975 0.356173 0.351557
B 0.726361 0.268492 0.236727
B 0.404962 0.499725 0.621544
B 0.509856 0.661858 0.500002
B 0.389127 0.0711425 0.559553
B 0.770102 0.0716822 0.318477
B 0.716993 0.00654078 0.269658
B 0.877862 0.363618 0.0393169
B 0.901761 0.133926 0.611663
B 0.442235 0.44226 0.489966

10
B 0.784096 0.326227 0.294462
B 0.462697 0.55746 0.679279
B 0.567591 0.719593 0.557737
B 0.446863 0.128878 0.617288
B 0.827863 0.12959 0.376012
B 0.774728 0.0642758 0.327393
B 0.935597 0.421353 0.0970519
B 0.959496 0.191661 0.669398
B 0.49997 0.499995 0.547701
B 0.784096 0.326227 0.294462

10
B 0.841831 0.383962 0.352197
B 0.520432 0.615195 0.737014
B 0.625326 0.777328 0.615472
B 0.504598 0.186613 0.675023
B 0.888712 0.184618 0.433191
B 0.832463 0.122011 0.385128
B 0.993332 0.479088 0.154787
B 0.0172315 0.249396 0.727133
B 0.841831 0.383962 0.352197
B 0.557705 0.55773 0.605436

10
B 0.899566 0.441697 0.409932
B 0.578167 0.67293 0.794749
B 0.683061 0.835063 0.673207
B 0.562333 0.244348 0.732758
B 0.949577 0.239628 0.490369
B 0.890198 0.179746 0.442863
B 0.0749665 0.307131 0.784868
B 0.899566 0.441697 0.409932
B 0.61544 0.615465 0.663171
B 0.0510672 0.536823 0.212522

10
B 0.957301 0.499432 0.467667
B 0.635902 0.730665 0.852484
B 0.740796 0.892798 0.730942
B 0.620068 0.302083 0.790493
B 0.947933 0.237481 0.500598
B 0.132702 0.364866 0.842603
B 0.957301 0.499432 0.467667
B 0.673175 0.6732 0.720906
B 0.108802 0.594558 0.270257
B 0.947933 0.237481 0.500598

10
B 0.693637 0.7884 0.910219
B 0.798531 0.950533 0.788678
B 0.677803 0.359818 0.848228
B 0.190437 0.422601 0.900338
B 0.0150359 0.557167 0.525402
B 0.73091 0.730935 0.778641
B 0.166537 0.652293 0.327992
B 0.00566804 0.295216 0.558333
B 0.0150359 0.557167 0.525402
B 0.00566804 0.295216 0.558333

10
B 0.751372 0.846135 0.967954
B 0.856266 0.00826836 0.846413
B 0.735538 0.417553 0.905963
B 0.248172 0.480336 0.958073
B 0.0727709 0.614902 0.583137
B 0.224272 0.710028 0.385727
B 0.0634031 0.352951 0.616068
B 0.0727709 0.614902 0.583137
B 0.0634031 0.352951 0.616068
B 0.788645 0.78867 0.836376

10
B 0.809107 0.90387 0.0256892
B 0.914001 0.0660034 0.904148
B 0.793273 0.475288 0.963698
B 0.130506 0.672637 0.640872
B 0.121138 0.410686 0.673803
B 0.130506 0.672637 0.640872
B 0.121138 0.410686 0.673803
B 0.84638 0.846405 0.894111
B 0.305907 0.538071 0.0158085
B 0.282007 0.767763 0.443462

10
B 0.866842 0.961605 0.0834243
B 0.971736 0.123738 0.961883
B 0.851008 0.533023 0.0214329
B 0.188241 0.730372 0.698607
B 0.178873 0.468421 0.731538
B 0.188241 0.730372 0.698607
B 0.178873 0.468421 0.731538
B 0.904115 0.90414 0.951846
B 0.363642 0.595806 0.0735435
B 0.339742 0.825498 0.501197

10
B 0.924577 0.0193402 0.141159
B 0.029471 0.181473 0.0196177
B 0.908743 0.590758 0.0791679
B 0.245976 0.788107 0.756342
B 0.236608 0.526156 0.789273
B 0.245976 0.788107 0.756342
B 0.236608 0.526156 0.789273
B 0.96185 0.961875 0.00958109
B 0.421377 0.653541 0.131279
B 0.397477 0.883233 0.558932

10
B 0.982312 0.0770752 0.198894
B 0.0872061 0.239208 0.0773527
B 0.966478 0.648493 0.136903
B 0.303711 0.845842 0.814077
B 0.294343 0.583891 0.847008
B 0.479112 0.711276 0.189014
B 0.455212 0.940968 0.616667
B 0.303711 0.845842 0.814077
B 0.294343 0.583891 0.847008
B 0.0195851 0.0196102 0.0673161
