
10
B 0.28065 0.834006 0.968255
B 0.292631 0.889371 0.889346
B 0.480994 0.66737 0.198725
B 0.357722 0.612361 0.0366943
B 0.760111 0.867799 0.361504
B 0.206218 0.1315 0.775195
B 0.740136 0.935322 0.871313
B 0.955732 0.0435649 0.842019
B 0.78493 0.288314 0.899138
B 0.40419 0.932086 0.378364

10
B 0.28065 0.834006 0.968255
B 0.292631 0.889371 0.889346
B 0.480994 0.66737 0.198725
B 0.357722 0.612361 0.0366943
B 0.760111 0.867799 0.361504
B 0.206218 0.1315 0.775195
B 0.740136 0.935322 0.871313
B 0.955732 0.0435649 0.842019
B 0.78493 0.288314 0.899138
B 0.40419 0.932086 0.378364

10
B 0.338385 0.891742 1.02599
B 0.350366 0.947106 0.947081
B 0.480994 0.66737 0.198725
B 0.415457 0.670096 0.0944293
B 0.817846 0.925534 0.419239
B 0.263953 0.189235 0.83293
B 0.797871 0.993057 0.929048
B 1.01347 0.1013 0.899754
B 0.842665 0.346049 0.956873
B 0.461925 0.989821 0.436099
